data/D022565/Lines.dss
New Line.line0 Units=km Length=0.00175 bus1=n198233.1.2.3 bus2=n198234.1.2.3 switch=n enabled=y phases=3 Linecode=38_HD_CU_3
New Line.line1 Units=km Length=0.02891 bus1=n198234.1.2.3 bus2=n198235.1.2.3 switch=n enabled=y phases=3 Linecode=38_HD_CU_3
New Line.line10 Units=km Length=0.0019399999999999999 bus1=n198243.1.2.3 bus2=n627729.1.2.3 switch=n enabled=y phases=3 Linecode=7/4.5_AAC_-_MERCURY_3
New Line.line11 Units=km Length=0.05557 bus1=n198240.1.2.3 bus2=n198244.1.2.3 switch=n enabled=y phases=3 Linecode=7/.080_CU_(7/2.0)_3
New Line.line12 Units=km Length=0.00116 bus1=n198244.1.2.3 bus2=n627730.1.2.3 switch=n enabled=y phases=3 Linecode=7/.080_CU_(7/2.0)_3
New Line.line13 Units=km Length=0.06089 bus1=n198237.1.2.3 bus2=n198245.1.2.3 switch=n enabled=y phases=3 Linecode=7/4.5_AAC_-_MERCURY_3
New Line.line14 Units=km Length=0.001 bus1=n198245.1.2.3 bus2=n198246.1.2.3 switch=n enabled=y phases=3 Linecode=7/4.5_AAC_-_MERCURY_3
New Line.line15 Units=km Length=0.021070000000000002 bus1=n198246.1.2.3 bus2=n193434.1.2.3 switch=n enabled=y phases=3 Linecode=38_HD_CU_3
New Line.line16 Units=km Length=0.001 bus1=n193434.1.2.3 bus2=n626079.1.2.3 switch=n enabled=y phases=3 Linecode=38_HD_CU_3
New Line.line17 Units=km Length=0.052180000000000004 bus1=n198246.1.2.3 bus2=n198247.1.2.3 switch=n enabled=y phases=3 Linecode=7/4.5_AAC_-_MERCURY_3
New Line.line18 Units=km Length=0.0019399999999999999 bus1=n198247.1.2.3 bus2=n627731.1.2.3 switch=n enabled=y phases=3 Linecode=7/4.5_AAC_-_MERCURY_3
New Line.line19 Units=km Length=0.01783 bus1=n198238.1.2.3 bus2=n198248.1.2.3 switch=n enabled=y phases=3 Linecode=unknown_linecode_3
New Line.line2 Units=km Length=0.03361 bus1=n198235.1.2.3 bus2=n198236.1.2.3 switch=n enabled=y phases=3 Linecode=38_HD_CU_3
New Line.line20 Units=km Length=0.001 bus1=n198248.1.2.3 bus2=n627732.1.2.3 switch=n enabled=y phases=3 Linecode=unknown_linecode_3
New Line.line21 Units=km Length=0.02422 bus1=n198246.1.2.3 bus2=n198249.1.2.3 switch=n enabled=y phases=3 Linecode=unknown_linecode_3
New Line.line22 Units=km Length=0.001 bus1=n198249.1.2.3 bus2=n627733.1.2.3 switch=n enabled=y phases=3 Linecode=unknown_linecode_3
New Line.line3 Units=km Length=0.001 bus1=n198236.1.2.3 bus2=n198237.1.2.3 switch=n enabled=y phases=3 Linecode=38_HD_CU_3
New Line.line4 Units=km Length=0.04555 bus1=n198237.1.2.3 bus2=n198238.1.2.3 switch=n enabled=y phases=3 Linecode=7/4.5_AAC_-_MERCURY_3
New Line.line5 Units=km Length=0.027600000000000003 bus1=n198238.1.2.3 bus2=n198239.1.2.3 switch=n enabled=y phases=3 Linecode=7/4.5_AAC_-_MERCURY_3
New Line.line6 Units=km Length=0.001 bus1=n198239.1.2.3 bus2=n198240.1.2.3 switch=n enabled=y phases=3 Linecode=7/4.5_AAC_-_MERCURY_3
New Line.line7 Units=km Length=0.04265 bus1=n198240.1.2.3 bus2=n198241.1.2.3 switch=n enabled=y phases=3 Linecode=7/4.5_AAC_-_MERCURY_3
New Line.line8 Units=km Length=0.046090000000000006 bus1=n198241.1.2.3 bus2=n198242.1.2.3 switch=n enabled=y phases=3 Linecode=7/4.5_AAC_-_MERCURY_3
New Line.line9 Units=km Length=0.04523 bus1=n198242.1.2.3 bus2=n198243.1.2.3 switch=n enabled=y phases=3 Linecode=7/4.5_AAC_-_MERCURY_3
